Circuit: * C:\Users\lapsha\Desktop\analog\lab2\1T\20k\Draft1.asc

.OP point found by inspection.

Date: Thu Mar 22 19:32:13 2018
Total elapsed time: 0.093 seconds.

tnom = 27
temp = 27
method = modified trap
totiter = 2125
traniter = 2125
tranpoints = 1057
accept = 1057
rejected = 0
matrix size = 5
fillins = 0
solver = Normal
Matrix Compiler1:       9 opcodes  0.1/[0.0]/0.1
Matrix Compiler2: off  [0.0]/0.1/0.1

