Circuit: * C:\Users\lapsha\Desktop\analog\laba3\3\Draft3.asc

WARNING: Node NC_01 is floating.

WARNING: Less than two connections to node NC_01.  This node is used by C2.
Instance "m:u1:2": Length shorter than recommended for a level 3 MOSFET.
Instance "m:u1:1": Length shorter than recommended for a level 3 MOSFET.
Direct Newton iteration for .op point succeeded.

Date: Thu May 03 11:33:35 2018
Total elapsed time: 0.360 seconds.

tnom = 27
temp = 27
method = modified trap
totiter = 2089
traniter = 2082
tranpoints = 1042
accept = 1042
rejected = 0
matrix size = 11
fillins = 4
solver = Normal
Matrix Compiler1: 1.00 KB object code size  0.9/0.4/[0.3]
Matrix Compiler2: 997 bytes object code size  0.4/0.6/[0.3]

