Circuit: * C:\Users\lapsha\Desktop\analog\laba3\3\Draft1.asc

.OP point found by inspection.

Date: Sat Mar 24 13:00:33 2018
Total elapsed time: 0.163 seconds.

tnom = 27
temp = 27
method = modified trap
totiter = 2082
traniter = 2082
tranpoints = 1042
accept = 1042
rejected = 0
matrix size = 4
fillins = 0
solver = Normal
Matrix Compiler1:       6 opcodes  0.1/[0.1]/0.1
Matrix Compiler2: off  [0.1]/0.1/0.1

