Circuit: * C:\Users\lapsha\Desktop\analog\laba3\3\Draft2.asc

.OP point found by inspection.

Date: Sat Mar 24 13:11:00 2018
Total elapsed time: 0.072 seconds.

tnom = 27
temp = 27
method = modified trap
totiter = 2082
traniter = 2082
tranpoints = 1042
accept = 1042
rejected = 0
matrix size = 4
fillins = 0
solver = Normal
Matrix Compiler1: off  [0.1]/0.1/0.1
Matrix Compiler2: 248 bytes object code size  0.2/0.1/[0.1]

