Circuit: * C:\Users\lapsha\Desktop\analog\laba3\1\Draft2.asc

.OP point found by inspection.

Date: Thu May 03 10:36:39 2018
Total elapsed time: 0.180 seconds.

tnom = 27
temp = 27
method = trap
totiter = 840
traniter = 0
tranpoints = 0
accept = 0
rejected = 0
matrix size = 5
fillins = 0
solver = Normal
Matrix Compiler1: 168 bytes object code size  0.4/0.2/[0.1]
Matrix Compiler2:      29 opcodes  0.3/[0.1]/0.1

