Circuit: * C:\Users\lapsha\Desktop\analog\lab2\1T\Draft1.asc

.OP point found by inspection.

Date: Sat Feb 24 14:14:05 2018
Total elapsed time: 0.110 seconds.

tnom = 27
temp = 27
method = modified trap
totiter = 2107
traniter = 2107
tranpoints = 1052
accept = 1052
rejected = 0
matrix size = 8
fillins = 0
solver = Normal
Matrix Compiler1: 318 bytes object code size  0.2/0.1/[0.1]
Matrix Compiler2: off  [0.2]/0.2/0.2

